35
	Energy:      51.3263627
C          3.60038        0.50712       -0.02595
B          2.26561        0.02685       -0.01984
C          4.70964       -0.48720       -0.03654
C          4.45779       -1.81770       -0.04028
C          3.05583       -2.34025       -0.03393
C          2.00483       -1.49514       -0.02429
C          0.59415       -1.93188       -0.01752
C         -0.43881       -1.04634       -0.00779
C         -0.21467        0.46894       -0.00314
C         -1.40043        1.42397        0.00782
B         -2.81388        0.70288        0.01357
C         -4.16949        1.48791        0.02498
C         -5.33120        0.81118        0.02939
C         -5.39046       -0.67929        0.02380
C         -4.28174       -1.44724        0.01397
C         -2.92020       -0.85085        0.00805
C         -1.81888       -1.61335       -0.00168
C          1.04826        0.99293       -0.00870
C          1.36693        2.45634       -0.00483
C          2.63734        2.91497       -0.01065
C          3.84239        1.99391       -0.02152
H          5.73784       -0.13892       -0.04132
H          5.28478       -2.52043       -0.04801
H          2.89422       -3.41393       -0.03720
H          0.39387       -3.00079       -0.02054
H         -1.36104        2.06674       -0.89720
H         -1.35002        2.05955        0.91736
H          0.56981        3.19171        0.00287
H          2.81119        3.98634       -0.00746
H          4.87220        2.40795       -0.02606
H         -1.93913       -2.69456       -0.00524
H         -4.39404       -2.52790        0.01035
H         -6.36432       -1.15869        0.02784
H         -4.16719        2.57313        0.02930
H         -6.26382        1.36638        0.03730
